
     RDKit          3D

 12 12  0  0  0  0  0  0  0  0999 V2000
   -0.2995   -1.3510    0.0141 C   0  0  0  0  0  0  0  0  0  0  0  0
   -1.3055   -0.4032    0.0428 C   0  0  0  0  0  0  0  0  0  0  0  0
   -1.0307    0.9497    0.0294 C   0  0  0  0  0  0  0  0  0  0  0  0
    0.3037    1.3426   -0.0142 C   0  0  0  0  0  0  0  0  0  0  0  0
    1.2985    0.3934   -0.0425 C   0  0  0  0  0  0  0  0  0  0  0  0
    1.0206   -0.9630   -0.0291 C   0  0  0  0  0  0  0  0  0  0  0  0
   -0.5031   -2.4015    0.0241 H   0  0  0  0  0  0  0  0  0  0  0  0
   -2.3381   -0.7237    0.0766 H   0  0  0  0  0  0  0  0  0  0  0  0
   -1.8299    1.6790    0.0523 H   0  0  0  0  0  0  0  0  0  0  0  0
    0.5056    2.4116   -0.0242 H   0  0  0  0  0  0  0  0  0  0  0  0
    2.3290    0.7220   -0.0763 H   0  0  0  0  0  0  0  0  0  0  0  0
    1.8494   -1.6559   -0.0530 H   0  0  0  0  0  0  0  0  0  0  0  0
  1  2  2  0
  2  3  1  0
  3  4  2  0
  4  5  1  0
  5  6  2  0
  6  1  1  0
  1  7  1  0
  2  8  1  0
  3  9  1  0
  4 10  1  0
  5 11  1  0
  6 12  1  0
M  END
