
     RDKit          3D

 40 41  0  0  0  0  0  0  0  0999 V2000
   -1.7304    2.9930    0.0989 C   0  0  0  0  0  0  0  0  0  0  0  0
   -1.9497    1.8161    0.9714 N   0  0  0  0  0  0  0  0  0  0  0  0
   -2.9368    0.9541    0.2575 C   0  0  0  0  0  0  0  0  0  0  0  0
   -2.2847    0.4162   -0.9734 C   0  0  0  0  0  0  0  0  0  0  0  0
   -1.0824   -0.4539   -0.7234 C   0  0  0  0  0  0  0  0  0  0  0  0
   -1.4478   -1.7071    0.0492 C   0  0  0  0  0  0  0  0  0  0  0  0
   -0.3836   -2.4019    0.6325 C   0  0  0  0  0  0  0  0  0  0  0  0
   -0.5902   -3.5270    1.3860 C   0  0  0  0  0  0  0  0  0  0  0  0
   -1.8928   -4.0001    1.5833 C   0  0  0  0  0  0  0  0  0  0  0  0
   -2.9643   -3.3128    1.0040 C   0  0  0  0  0  0  0  0  0  0  0  0
   -2.7010   -2.1738    0.2442 C   0  0  0  0  0  0  0  0  0  0  0  0
   -0.1440    0.2117    0.0503 O   0  0  0  0  0  0  0  0  0  0  0  0
    1.1839    0.4552   -0.1023 C   0  0  0  0  0  0  0  0  0  0  0  0
    1.9726    0.1294   -1.1675 C   0  0  0  0  0  0  0  0  0  0  0  0
    3.3344    0.4044   -1.2495 C   0  0  0  0  0  0  0  0  0  0  0  0
    3.9650    1.0525   -0.1925 C   0  0  0  0  0  0  0  0  0  0  0  0
    3.1960    1.3968    0.8976 C   0  0  0  0  0  0  0  0  0  0  0  0
    1.8662    1.1153    0.9494 C   0  0  0  0  0  0  0  0  0  0  0  0
    5.4141    1.3607   -0.2299 C   0  0  0  0  0  0  0  0  0  0  0  0
    5.6269    2.6969    0.0051 F   0  0  0  0  0  0  0  0  0  0  0  0
    6.0822    0.5671    0.6991 F   0  0  0  0  0  0  0  0  0  0  0  0
    5.8884    1.0515   -1.4833 F   0  0  0  0  0  0  0  0  0  0  0  0
   -0.8562    2.8046   -0.5586 H   0  0  0  0  0  0  0  0  0  0  0  0
   -2.6264    3.1427   -0.5510 H   0  0  0  0  0  0  0  0  0  0  0  0
   -1.5146    3.8584    0.7357 H   0  0  0  0  0  0  0  0  0  0  0  0
   -2.4837    2.2151    1.7989 H   0  0  0  0  0  0  0  0  0  0  0  0
   -3.7935    1.6283    0.0465 H   0  0  0  0  0  0  0  0  0  0  0  0
   -3.2085    0.2067    1.0339 H   0  0  0  0  0  0  0  0  0  0  0  0
   -1.8892    1.2930   -1.5665 H   0  0  0  0  0  0  0  0  0  0  0  0
   -2.9987   -0.0870   -1.6399 H   0  0  0  0  0  0  0  0  0  0  0  0
   -0.6816   -0.8049   -1.6669 H   0  0  0  0  0  0  0  0  0  0  0  0
    0.6072   -2.0303    0.4576 H   0  0  0  0  0  0  0  0  0  0  0  0
    0.2265   -4.0861    1.8421 H   0  0  0  0  0  0  0  0  0  0  0  0
   -2.0568   -4.8747    2.1705 H   0  0  0  0  0  0  0  0  0  0  0  0
   -3.9728   -3.6711    1.1607 H   0  0  0  0  0  0  0  0  0  0  0  0
   -3.5619   -1.7043   -0.1834 H   0  0  0  0  0  0  0  0  0  0  0  0
    1.5312   -0.3685   -2.0068 H   0  0  0  0  0  0  0  0  0  0  0  0
    3.9565    0.1343   -2.0974 H   0  0  0  0  0  0  0  0  0  0  0  0
    3.6595    1.9115    1.7438 H   0  0  0  0  0  0  0  0  0  0  0  0
    1.2410    1.3880    1.7965 H   0  0  0  0  0  0  0  0  0  0  0  0
  1  2  1  0
  2  3  1  0
  3  4  1  0
  4  5  1  0
  5  6  1  0
  6  7  2  0
  7  8  1  0
  8  9  2  0
  9 10  1  0
 10 11  2  0
  5 12  1  0
 12 13  1  0
 13 14  2  0
 14 15  1  0
 15 16  2  0
 16 17  1  0
 17 18  2  0
 16 19  1  0
 19 20  1  0
 19 21  1  0
 19 22  1  0
 11  6  1  0
 18 13  1  0
  1 23  1  0
  1 24  1  0
  1 25  1  0
  2 26  1  0
  3 27  1  0
  3 28  1  0
  4 29  1  0
  4 30  1  0
  5 31  1  0
  7 32  1  0
  8 33  1  0
  9 34  1  0
 10 35  1  0
 11 36  1  0
 14 37  1  0
 15 38  1  0
 17 39  1  0
 18 40  1  0
M  END
